*SOILS: General DSSAT Soil Input File

*BID0000001  WISE        SCL     140 GENERIC SOIL PROFILE
@SITE        COUNTRY          LAT     LONG SCS Family
 -99         Generic      -99.000  -99.000 Generic     
@ SCOM  SALB  SLU1  SLDR  SLRO  SLNF  SLPF  SMHB  SMPX  SMKE
    BN  0.13   7.8  0.60 73.00  1.00  1.00 SA001 SA001 SA001
@  SLB  SLMH  SLLL  SDUL  SSAT  SRGF  SSKS  SBDM  SLOC  SLCL  SLSI  SLCF  SLNI  SLHW  SLHB  SCEC  SADC 
    21    Ap 0.033 0.124 0.387  0.81 17.46  1.54  0.31  7.00 12.00 -99.0  0.02  5.50  4.40  1.40 -99.0 
    50   Bt1 0.218 0.300 0.350  0.49  0.16  1.67  0.09 21.00  8.00 -99.0  0.01  5.80  4.80  1.90 -99.0 
    78   Bt2 0.176 0.279 0.354  0.28  0.36  1.66  0.08 34.00 11.00 -99.0  0.01  5.80  5.00  2.70 -99.0 
   106   Bt3 0.171 0.287 0.369  0.16  0.39  1.62  0.03 39.00 13.00 -99.0  0.01  6.10  5.20  3.40 -99.0 
   153   Bt4 0.195 0.301 0.415  0.08  0.64  1.49  0.03 40.00 14.00 -99.0  0.01  6.20  5.40  3.50 -99.0 
   200   Bt5 0.191 0.300 0.421  0.03  0.62  1.50  0.03 42.00 14.00 -99.0  0.01  5.60  4.90  3.40 -99.0 
@  SLB  SLPX  SLPT  SLPO CACO3  SLAL  SLFE  SLMN  SLBS  SLPA  SLPB  SLKE  SLMG  SLNA  SLSU  SLEC  SLCA 
    21 -99.0 -99.0 -99.0 -99.0   0.1 -99.0 -99.0  86.0 -99.0 -99.0   0.1   0.3   0.1 -99.0 -99.0   0.7 
    50 -99.0 -99.0 -99.0 -99.0 -99.0 -99.0 -99.0  95.0 -99.0 -99.0   0.2   0.3   0.1 -99.0 -99.0   1.2 
    78 -99.0 -99.0 -99.0 -99.0 -99.0 -99.0 -99.0  96.0 -99.0 -99.0   0.1   0.9   0.1 -99.0 -99.0   1.5 
   106 -99.0 -99.0 -99.0 -99.0 -99.0 -99.0 -99.0  88.0 -99.0 -99.0   0.2   1.3   0.1 -99.0 -99.0   1.4 
   153 -99.0 -99.0 -99.0 -99.0 -99.0 -99.0 -99.0  89.0 -99.0 -99.0   0.4   1.1   0.1 -99.0 -99.0   1.5 
   200 -99.0 -99.0 -99.0 -99.0 -99.0 -99.0 -99.0  74.0 -99.0 -99.0   0.4   0.8   0.1 -99.0 -99.0   1.2 
