*SOILS: General DSSAT Soil Input File

*GJIN000001  Gujarat     -99     260 Clay
@SITE        COUNTRY          LAT     LONG SCS FAMILY
 Gujarat     India          23.000 -72.000 Gujarat soil type
@ SCOM  SALB  SLU1  SLDR  SLRO  SLNF  SLPF  SMHB  SMPX  SMKE
   -99  0.09   6.8  0.60  76.0  1.00  1.00 IB001 IB001 IB001
@  SLB  SLMH  SLLL  SDUL  SSAT  SRGF  SSKS  SBDM  SLOC  SLCL  SLSI  SLCF  SLNI  SLHW  SLHB  SCEC  SADC
     5   -99 0.350 0.450 0.480 1.000   -99  1.17  2.90   -99   -99   -99   -99   -99   -99   -99   -99 
    15   -99 0.350 0.450 0.480 1.000   -99  1.17  2.90   -99   -99   -99   -99   -99   -99   -99   -99 
    28   -99 0.350 0.450 0.480 1.000   -99  1.17  2.90   -99   -99   -99   -99   -99   -99   -99   -99 
    44   -99 0.350 0.450 0.480 1.000   -99  1.17  2.90   -99   -99   -99   -99   -99   -99   -99   -99 
    65   -99 0.350 0.450 0.480 1.000   -99  1.17  2.90   -99   -99   -99   -99   -99   -99   -99   -99 
    96   -99 0.350 0.450 0.480 1.000   -99  1.17  2.90   -99   -99   -99   -99   -99   -99   -99   -99 
   122   -99 0.350 0.450 0.480 1.000   -99  1.17  2.90   -99   -99   -99   -99   -99   -99   -99   -99 
   150   -99 0.350 0.450 0.480 1.000   -99  1.17  2.90   -99   -99   -99   -99   -99   -99   -99   -99 
   178   -99 0.350 0.450 0.480 1.000   -99  1.17  2.90   -99   -99   -99   -99   -99   -99   -99   -99 
   196   -99 0.350 0.450 0.480 1.000   -99  1.17  2.90   -99   -99   -99   -99   -99   -99   -99   -99 
   200   -99 0.350 0.450 0.480 1.000   -99  1.17  2.90   -99   -99   -99   -99   -99   -99   -99   -99 
   260   -99 0.350 0.450 0.480 1.000   -99  1.17  2.90   -99   -99   -99   -99   -99   -99   -99   -99 


   